BEGIN MODFLOW_GRID basegrid
  ROTATION_ANGLE = 0.0
  X_OFFSET = 0.0
  Y_OFFSET = 0.0
  NLAY = 1
  NROW = 100
  NCOL = 100
  DELR = CONSTANT 15.0235891342
  DELC = CONSTANT 10.2354431152
  TOP = CONSTANT 80.0
  BOTTOM LAYER 1 = CONSTANT -30.0
END MODFLOW_GRID


BEGIN QUADTREE_BUILDER quadtreebuilder
  MODFLOW_GRID = basegrid
  SMOOTHING = full
  TOP LAYER 1 = REPLICATE basename
  BOTTOM LAYER 1 = REPLICATE basename
  GRID_DEFINITION_FILE = quadtreegrid.dfn
END QUADTREE_BUILDER






